      52
 i =        0, time =        0.000, E =      -471.4677511314
 Li         2.4625000000        2.4625000000        0.2276630500
 Li         2.4625000000        2.4625000000        4.6973369500
 Li         2.4625000000        4.6973369500        2.4625000000
 Li         2.4625000000        0.2276630500        2.4625000000
 Li         0.2276630500        2.4625000000        2.4625000000
 Li         4.6973369500        2.4625000000        2.4625000000
 Li         2.4625000000        7.3875000000        5.1526630500
 Li         2.4625000000        7.3875000000        9.6223369500
 Li         2.4625000000        9.6223369500        7.3875000000
 Li         2.4625000000        5.1526630500        7.3875000000
 Li         0.2276630500        7.3875000000        7.3875000000
 Li         4.6973369500        7.3875000000        7.3875000000
 Li         7.3875000000        2.4625000000        5.1526630500
 Li         7.3875000000        2.4625000000        9.6223369500
 Li         7.3875000000        4.6973369500        7.3875000000
 Li         7.3875000000        0.2276630500        7.3875000000
 Li         5.1526630500        2.4625000000        7.3875000000
 Li         9.6223369500        2.4625000000        7.3875000000
 Li         7.3875000000        7.3875000000        0.2276630500
 Li         7.3875000000        7.3875000000        4.6973369500
 Li         7.3875000000        9.6223369500        2.4625000000
 Li         7.3875000000        5.1526630500        2.4625000000
 Li         5.1526630500        7.3875000000        2.4625000000
 Li         9.6223369500        7.3875000000        2.4625000000
  P         4.9250000000        0.0000000000        0.0000000000
  P         4.9250000000        4.9250000000        4.9250000000
  P         0.0000000000        0.0000000000        4.9250000000
  P         0.0000000000        4.9250000000        0.0000000000
  S         1.1378949500        3.7871050500        8.7121050500
  S         8.7121050500        3.7871050500        1.1378949500
  S         3.7871050500        1.1378949500        8.7121050500
  S         6.0628949500        1.1378949500        1.1378949500
  S         1.1378949500        8.7121050500        3.7871050500
  S         8.7121050500        8.7121050500        6.0628949500
  S         3.7871050500        6.0628949500        3.7871050500
  S         6.0628949500        6.0628949500        6.0628949500
  S         6.0628949500        3.7871050500        3.7871050500
  S         3.7871050500        3.7871050500        6.0628949500
  S         8.7121050500        1.1378949500        3.7871050500
  S         1.1378949500        1.1378949500        6.0628949500
  S         6.0628949500        8.7121050500        8.7121050500
  S         3.7871050500        8.7121050500        1.1378949500
  S         8.7121050500        6.0628949500        8.7121050500
  S         1.1378949500        6.0628949500        1.1378949500
  S         7.3875000000        2.4625000000        7.3875000000
  S         7.3875000000        7.3875000000        2.4625000000
  S         0.0000000000        0.0000000000        0.0000000000
  S         0.0000000000        4.9250000000        4.9250000000
 Cl         4.9250000000        0.0000000000        4.9250000000
 Cl         4.9250000000        4.9250000000        0.0000000000
 Cl         2.4625000000        2.4625000000        2.4625000000
 Cl         2.4625000000        7.3875000000        7.3875000000
      52
 i =        1, time =        2.000, E =      -471.4853819834
 Li         2.4637727344        2.4602919205        0.2521225244
 Li         2.4541650166        2.4827648980        4.7433525613
 Li         2.4628534115        4.7230752493        2.4825607807
 Li         2.4633418327        0.2435732616        2.4734059844
 Li         0.2179319310        2.4837295125        2.4556215872
 Li         4.7052189425        2.4639338740        2.4599992895
 Li         2.4837180392        7.4072006025        5.1713210186
 Li         2.4968206108        7.4121695852        9.6614968314
 Li         2.4922668124        9.6576018898        7.4300024255
 Li         2.4679818910        5.1882378440        7.4196393238
 Li         0.2309778469        7.4046837248        7.4115375933
 Li         4.7165639037        7.4305867813        7.4186174081
 Li         7.4420744724        2.4742829828        5.1998006992
 Li         7.4274450507        2.4763553612        9.6636119677
 Li         7.4021479572        4.7313502952        7.4156930591
 Li         7.4251578992        0.2334124915        7.4278220124
 Li         5.1753293817        2.4706597015        7.4120786663
 Li         9.6748139229        2.4791914344        7.4274581119
 Li         7.4186217161        7.4453678920        0.2157077352
 Li         7.4203060231        7.4135852793        4.7365039789
 Li         7.4203969852        9.6568111177        2.4393189716
 Li         7.4169198886        5.1768682111        2.4614948727
 Li         5.1848778142        7.4115540404        2.4922409496
 Li         9.6761079174        7.4353726541        2.4804725323
  P         4.9372001128        0.0025649182        0.0028297865
  P         4.9464015420        4.9460995064        4.9372470963
  P        -0.0017878302        0.0032937789        4.9395510995
  P        -0.0002326734        4.9436838381        0.0002644302
  S         1.1506210917        3.8078862222        8.7459078277
  S         8.7521434645        3.8083317036        1.1558853539
  S         3.8089526020        1.1500349894        8.7517045773
  S         6.0837464170        1.1390199071        1.1550634041
  S         1.1473591886        8.7449290288        3.7965272808
  S         8.7424620078        8.7496324333        6.0804936974
  S         3.8072072619        6.0866835567        3.8008703900
  S         6.0993059283        6.0923851964        6.0905588185
  S         6.0873773878        3.8021711753        3.7949998777
  S         3.8021510091        3.8032579642        6.0914255920
  S         8.7494446996        1.1339224356        3.8006530367
  S         1.1371470084        1.1398341757        6.0871205306
  S         6.0864011833        8.7462579029        8.7512122422
  S         3.7988428992        8.7481005189        1.1347270789
  S         8.7392246271        6.0887976831        8.7482242013
  S         1.1402999328        6.0835863393        1.1475894859
  S         7.4201576326        2.4610380830        7.4227795614
  S         7.4270869180        7.4189063294        2.4650601707
  S        -0.0014956568       -0.0024977775        0.0044467774
  S        -0.0028707766        4.9476950015        4.9502365077
 Cl         4.9453580198       -0.0006118577        4.9531458568
 Cl         4.9401276223        4.9520765684        0.0036665230
 Cl         2.4843766819        2.4782300032        2.4742314917
 Cl         2.4735768757        7.4201330272        7.4115787116
      52
 i =        2, time =        4.000, E =      -471.5279407300
 Li         2.4883158475        2.4820924744        0.2743858466
 Li         2.4691541771        2.5304013638        4.8416722143
 Li         2.4866166136        4.8015086438        2.5298812753
 Li         2.4876747386        0.2575331879        2.5083192519
 Li         0.2066634031        2.5301424976        2.4746132526
 Li         4.7661214486        2.4911942388        2.4833036304
 Li         2.5283107620        7.5023878928        5.2394310021
 Li         2.5546616861        7.5145609477        9.8046632759
 Li         2.5454356657        9.7971628094        7.5505218880
 Li         2.4971042629        5.2731257991        7.5269389167
 Li         0.2320537070        7.4985843985        7.5120592057
 Li         4.7886253112        7.5504189298        7.5262907185
 Li         7.5751694616        2.5130170609        5.2998718983
 Li         7.5457890852        2.5146201416        9.8051342346
 Li         7.4953260352        4.8133841805        7.5198906949
 Li         7.5413786934        0.2411313191        7.5461012104
 Li         5.2522320748        2.5043598672        7.5133371571
 Li         9.8272563219        2.5214407503        7.5441770223
 Li         7.5285768735        7.5810406027        0.2065184814
 Li         7.5317052499        7.5154638771        4.8235339181
 Li         7.5322472267        9.7911860087        2.4407200866
 Li         7.5245931707        5.2549396759        2.4871255723
 Li         5.2712251756        7.5127793366        2.5473495772
 Li         9.8297746631        7.5599200286        2.5237462908
  P         5.0011522642        0.0050812033        0.0056355889
  P         5.0194996022        5.0183161100        5.0009846687
  P        -0.0038490423        0.0062372647        5.0052726350
  P        -0.0009317307        5.0136516842        0.0004164101
  S         1.1766571681        3.8671631491        8.8694439204
  S         8.8817777386        3.8679367700        1.1866973000
  S         3.8690133094        1.1752739980        8.8807664751
  S         6.1682637094        1.1531462278        1.1852174052
  S         1.1701298747        8.8674999310        3.8445244656
  S         8.8624803780        8.8767507322        6.1621330329
  S         3.8655022025        6.1746774783        3.8528086962
  S         6.1992307897        6.1859739725        6.1822820709
  S         6.1756300818        3.8553250697        3.8410590414
  S         3.8555644571        3.8578485339        6.1840459573
  S         8.8762365578        1.1429198044        3.8523214446
  S         1.1496976791        1.1544701286        6.1754300531
  S         6.1735159426        8.8699402500        8.8797309900
  S         3.8487341674        8.8735033696        1.1446245550
  S         8.8560026729        6.1786432410        8.8740048832
  S         1.1559873819        6.1682903153        1.1700200916
  S         7.5291700060        2.4852797128        7.5349820592
  S         7.5430596307        7.5270866702        2.4932517971
  S        -0.0024234400       -0.0049684214        0.0089629715
  S        -0.0051343745        5.0215863451        5.0267285440
 Cl         5.0165585235       -0.0012527163        5.0325787930
 Cl         5.0060670444        5.0304149610        0.0073608050
 Cl         2.5322347104        2.5196445478        2.5117271520
 Cl         2.5106837850        7.5296035317        7.5124278505
      52
 i =        3, time =        6.000, E =      -471.5487267218
 Li         2.5251218566        2.5170071245        0.2931042033
 Li         2.4965592558        2.5946209051        4.9707078795
 Li         2.5228855223        4.9113966565        2.5935634987
 Li         2.5246228656        0.2684364521        2.5562879031
 Li         0.1934876550        2.5903882269        2.5088754601
 Li         4.8592970785        2.5335749895        2.5217107341
 Li         2.5852152129        7.6405175006        5.3342978784
 Li         2.6250167235        7.6614431038       10.0088765683
 Li         2.6109370222        9.9982778984        7.7159632056
 Li         2.5391064055        5.3844067519        7.6765196049
 Li         0.2299294004        7.6364138634        7.6560618666
 Li         4.8925818103        7.7140944916        7.6775376336
 Li         7.7538680409        2.5678947375        5.4295061592
 Li         7.7095848383        2.5662841294       10.0042100173
 Li         7.6343501263        4.9218253677        7.6675791293
 Li         7.7033397762        0.2495939430        7.7095140427
 Li         5.3607406755        2.5526298697        7.6584244664
 Li        10.0364927344        2.5782366579        7.7047768839
 Li         7.6848102328        7.7614483253        0.1996074315
 Li         7.6889495060        7.6604626575        4.9366567741
 Li         7.6905524560        9.9825335691        2.4560377642
 Li         7.6775146955        5.3643584887        2.5284658978
 Li         5.3889914291        7.6586723414        2.6166179047
 Li        10.0400648033        7.7281428784        2.5810924994
  P         5.0952044645        0.0074914807        0.0083962209
  P         5.1225557910        5.1196988941        5.0945693866
  P        -0.0060925797        0.0085754667        5.1003232157
  P        -0.0021111473        5.1131281713        0.0004038653
  S         1.2104339300        3.9485893315        9.0445906619
  S         9.0627511153        3.9495606961        1.2246957035
  S         3.9508741407        1.2081649975        9.0610691925
  S         6.2890507487        1.1747578134        1.2227275139
  S         1.2006845519        9.0417015723        3.9148680011
  S         9.0340212966        9.0552765450        6.2804847431
  S         3.9455818581        6.2995657515        3.9265174814
  S         6.3350905739        6.3161892520        6.3105636235
  S         6.3003048393        3.9301939848        3.9089921701
  S         3.9310758098        3.9346368649        6.3133413921
  S         9.0541636386        1.1595087648        3.9256260443
  S         1.1700513802        1.1762612097        6.3005385806
  S         6.2967953526        9.0450764189        9.0594557745
  S         3.9203872255        9.0500858158        1.1622087178
  S         9.0243106148        6.3049829689        9.0513112636
  S         1.1794375644        6.2896977073        1.1996195909
  S         7.6817946252        2.5244367284        7.6913849587
  S         7.7026520517        7.6792313326        2.5362001024
  S        -0.0028121406       -0.0073672962        0.0135826802
  S        -0.0067688819        5.1247946207        5.1326355907
 Cl         5.1167282801       -0.0019457872        5.1414654388
 Cl         5.1009541327        5.1381661277        0.0110811196
 Cl         2.5950322972        2.5758414733        2.5641519550
 Cl         2.5628787153        7.6831379150        7.6572749846
      52
 i =        4, time =        8.000, E =      -471.5333128234
 Li         2.5604253739        2.5512860709        0.3067658817
 Li         2.5227949847        2.6613454074        5.1028798167
 Li         2.5579623600        5.0255058956        2.6594328506
 Li         2.5604599709        0.2749913585        2.6033917171
 Li         0.1778140921        2.6500670846        2.5448112231
 Li         4.9580162175        2.5773153713        2.5615079517
 Li         2.6403835295        7.7799378804        5.4269934853
 Li         2.6937394145        7.8105534096       10.2190944004
 Li         2.6746336569       10.2060290469        7.8839462146
 Li         2.5803124199        5.4928095118        7.8263784629
 Li         0.2235656799        7.7763148863        7.8014845760
 Li         5.0015264713        7.8794023104        7.8302338507
 Li         7.9356857167        2.6248407828        5.5589330120
 Li         7.8764908213        2.6173335821       10.2060362079
 Li         7.7773290278        5.0293985594        7.8170173863
 Li         7.8687750685        0.2574151520        7.8758340782
 Li         5.4716944908        2.6014659066        7.8053675625
 Li        10.2473122267        2.6354519842        7.8671004343
 Li         7.8453047116        7.9440033003        0.1942076894
 Li         7.8498953025        7.8067792894        5.0484264972
 Li         7.8532811037       10.1759912249        2.4718800344
 Li         7.8334313009        5.4760865569        2.5715673312
 Li         5.5089168794        7.8074217723        2.6856758588
 Li        10.2516493569        7.8977189620        2.6382338293
  P         5.1915048031        0.0097230317        0.0110824805
  P         5.2275790632        5.2221645897        5.1901431057
  P        -0.0084722498        0.0101763884        5.1967861971
  P        -0.0037207827        5.2142027471        0.0002454489
  S         1.2447824281        4.0310711376        9.2224031246
  S         9.2459714890        4.0321132072        1.2626412343
  S         4.0334161455        1.2416342021        9.2435772039
  S         6.4111841900        1.1969060142        1.2603836895
  S         1.2319504614        9.2185964705        3.9866529865
  S         9.2081923897        9.2361975652        6.4006814472
  S         4.0263624940        6.4264061838        4.0009853317
  S         6.4717228841        6.4479836573        6.4403501156
  S         6.4264517067        4.0057955551        3.9779243928
  S         4.0076907225        4.0126344746        6.4442797693
  S         9.2341936025        1.1768568686        3.9995518327
  S         1.1912397838        1.1982414485        6.4274997911
  S         6.4212739526        9.2227451192        9.2413260640
  S         3.9928290814        9.2288711138        1.1806332096
  S         9.1952865906        6.4327906234        9.2311514978
  S         1.2036446253        6.4129084488        1.2293046283
  S         7.8360915991        2.5647192011        7.8499702225
  S         7.8638151770        7.8333296212        2.5800137471
  S        -0.0026889134       -0.0096264886        0.0182858499
  S        -0.0077373688        5.2292771667        5.2399230835
 Cl         5.2178693905       -0.0027046894        5.2517400963
 Cl         5.1968607034        5.2472637567        0.0147817215
 Cl         2.6585455374        2.6327606323        2.6175060754
 Cl         2.6161169353        7.8387199744        7.8042103384
      52
 i =        5, time =       10.000, E =      -471.5016935032
 Li         2.5827236444        2.5733506263        0.3141288633
 Li         2.5365951708        2.7182354487        5.2143410155
 Li         2.5803926375        5.1203254168        2.7150709009
 Li         2.5836734389        0.2761497884        2.6378036414
 Li         0.1592011939        2.6968034258        2.5707964401
 Li         5.0392379025        2.6106221069        2.5909730667
 Li         2.6819105124        7.8849780697        5.4927704102
 Li         2.7487105842        7.9255633780       10.3879229326
 Li         2.7244662682       10.3730722300        8.0178737233
 Li         2.6092115601        5.5731933969        7.9405312218
 Li         0.2122053157        7.8823951211        7.9122641088
 Li         5.0922788989        8.0099453206        7.9481779852
 Li         8.0837096095        2.6715773765        5.6624273152
 Li         8.0098505219        2.6558279255       10.3635189574
 Li         7.8881461669        5.1128816240        7.9323436383
 Li         8.0010589974        0.2633752609        8.0085450649
 Li         5.5598092050        2.6388557922        7.9181267530
 Li        10.4122678717        2.6809126005        7.9948453753
 Li         7.9736577437        8.0917867306        0.1895539951
 Li         7.9780586099        7.9185625803        5.1354425028
 Li         7.9839624467       10.3245332692        2.4770519817
 Li         7.9558778481        5.5649667593        2.6044214743
 Li         5.6056093347        7.9230095893        2.7420859676
 Li        10.4169669458        8.0321437649        2.6829035654
  P         5.2660782445        0.0117022666        0.0136533900
  P         5.3104278768        5.3015686726        5.2637177617
  P        -0.0109808450        0.0109938775        5.2707004868
  P        -0.0056891791        5.2928843179       -0.0000025942
  S         1.2735167375        4.0963166828        9.3606894960
  S         9.3891287624        4.0973329565        1.2942838080
  S         4.0983603889        1.2695602343        9.3860450599
  S         6.5047744754        1.2137080983        1.2919679873
  S         1.2578361974        9.3560200995        4.0418269949
  S         9.3429338296        9.3772845712        6.4928529645
  S         4.0896046525        6.5252128739        4.0581001832
  S         6.5789932356        6.5513135731        6.5416124739
  S         6.5241146020        4.0640421311        4.0298827308
  S         4.0672192119        4.0736623663        6.5468025922
  S         9.3741609923        1.1891729445        4.0560505439
  S         1.2073332036        1.2145339600        6.5263095879
  S         6.5170254513        9.3607845897        9.3830545437
  S         4.0479986548        9.3677094701        1.1940918774
  S         9.3269000945        6.5320365314        9.3712876238
  S         1.2226442059        6.5080171046        1.2530368523
  S         7.9560377712        2.5943241779        7.9745442065
  S         7.9903652563        7.9532604547        2.6127916242
  S        -0.0020896236       -0.0116707965        0.0230189466
  S        -0.0080142560        5.3108998569        5.3244422575
 Cl         5.2959181896       -0.0035352186        5.3391994924
 Cl         5.2698283085        5.3335145882        0.0183909865
 Cl         2.7104275292        2.6782432025        2.6596853048
 Cl         2.6582705933        7.9601911383        7.9172454258
      52
 i =        6, time =       12.000, E =      -471.4803351481
 Li         2.5848123017        2.5759513040        0.3145206827
 Li         2.5309729621        2.7571777802        5.2894202827
 Li         2.5830038465        5.1804690035        2.7522926830
 Li         2.5870347284        0.2713910381        2.6520082917
 Li         0.1376091262        2.7225645175        2.5794558648
 Li         5.0879070404        2.6259709063        2.6026462134
 Li         2.7021910752        7.9328383521        5.5159449943
 Li         2.7820983975        7.9830159976       10.4846507510
 Li         2.7526813778       10.4687099725        8.0940029295
 Li         2.6185491823        5.6095189981        7.9959106984
 Li         0.1955831417        7.9316198318        7.9652341745
 Li         5.1496825080        8.0822017740        8.0080520098
 Li         8.1739226785        2.7000767733        5.7232938832
 Li         8.0859090622        2.6741507142       10.4463365723
 Li         7.9435503646        5.1573743395        7.9905373402
 Li         8.0764536407        0.2666684565        8.0839851245
 Li         5.6087039521        2.6570735349        7.9735379110
 Li        10.5008047890        2.7067465610        8.0645908943
 Li         8.0463067487        8.1807571145        0.1851507772
 Li         8.0498297121        7.9728139858        5.1826457448
 Li         8.0589472580       10.3979645923        2.4646363942
 Li         8.0213129254        5.6147151304        2.6192911344
 Li         5.6625785458        7.9822415549        2.7777352384
 Li        10.5053732090        8.1077973132        2.7071667918
  P         5.3034839628        0.0133657196        0.0160656841
  P         5.3555032086        5.3423623340        5.2998568339
  P        -0.0135911035        0.0110176169        5.3066800081
  P        -0.0079183694        5.3337404663       -0.0002812202
  S         1.2925910409        4.1324639931        9.4322543957
  S         9.4649177494        4.1333957705        1.3155317877
  S         4.1338906308        1.2879353012        9.4612544577
  S         6.5506531653        1.2213879663        1.3133906259
  S         1.2743716736        9.4268070850        4.0687639576
  S         9.4111822112        9.4513168385        6.5378313532
  S         4.1235366149        6.5766837571        4.0862151722
  S         6.6375006599        6.6068249574        6.5950197564
  S         6.5740449999        4.0933112716        4.0533489289
  S         4.0979247040        4.1059867126        6.6015479782
  S         9.4469186580        1.1927845767        4.0835285933
  S         1.2145241740        1.2213987761        6.5776639721
  S         6.5648485118        9.4320504098        9.4573967394
  S         4.0742978058        9.4394811760        1.1988855610
  S         9.3921105567        6.5834201245        9.4444810076
  S         1.2326011188        6.5558267905        1.2669234795
  S         8.0184547007        2.6057182485        8.0417615635
  S         8.0589657378        8.0157704869        2.6269134613
  S        -0.0010620059       -0.0134289380        0.0277252132
  S        -0.0075913175        5.3541073027        5.3706150893
 Cl         5.3353955565       -0.0044400729        5.3882106197
 Cl         5.3044820124        5.3812984026        0.0218369044
 Cl         2.7426311372        2.7044094004        2.6828540793
 Cl         2.6814962897        8.0242503260        7.9732510321
      52
 i =        7, time =       14.000, E =      -471.4838492216
 Li         2.5641320622        2.5565104211        0.3079240876
 Li         2.5035144224        2.7749850120        5.3216494544
 Li         2.5632577171        5.1996518363        2.7678415728
 Li         2.5679872840        0.2608063372        2.6432128624
 Li         0.1134779254        2.7241343330        2.5681562116
 Li         5.0979210579        2.6206119810        2.5938094522
 Li         2.6983625719        7.9150285173        5.4909652880
 Li         2.7908859184        7.9738526436       10.4972267194
 Li         2.7563171774       10.4809076246        8.1030983626
 Li         2.6057391963        5.5959851028        7.9837981256
 Li         0.1739686985        7.9152905622        7.9515909885
 Li         5.1675768668        8.0871252142        8.0009317757
 Li         8.1969554959        2.7071914220        5.7349814375
 Li         8.0954661129        2.6694483129       10.4429762587
 Li         7.9347087365        5.1571862154        7.9829371183
 Li         8.0857779475        0.2669213633        8.0930170542
 Li         5.6120443975        2.6531724837        7.9628144479
 Li        10.5012613517        2.7099126178        8.0673694993
 Li         8.0542066292        8.2014881063        0.1808357802
 Li         8.0561200497        7.9608594551        5.1842338831
 Li         8.0691282968       10.3848991159        2.4322803692
 Li         8.0206844332        5.6190652127        2.6132325126
 Li         5.6733965894        7.9763253806        2.7894120076
 Li        10.5051483844        8.1155570247        2.7079219833
  P         5.2978450475        0.0146729127        0.0182858656
  P         5.3568085168        5.3386204601        5.2927133304
  P        -0.0162441482        0.0102408745        5.2989174879
  P        -0.0103069207        5.3309217645       -0.0005483808
  S         1.3003517691        4.1349494231        9.4267668623
  S         9.4629033981        4.1357847330        1.3247075342
  S         4.1355045473        1.2951514128        9.4588640431
  S         6.5415803120        1.2184780359        1.3229664794
  S         1.2799583744        9.4206395376        4.0630790092
  S         9.4026859706        9.4479412104        6.5283568741
  S         4.1236984270        6.5734529695        4.0809360478
  S         6.6398215244        6.6071009196        6.5931713825
  S         6.5689382375        4.0892363181        4.0440316447
  S         4.0953740975        4.1051562263        6.6011081063
  S         9.4421483757        1.1863297129        4.0776149428
  S         1.2113299699        1.2174169330        6.5742149769
  S         6.5574759503        9.4262665583        9.4540074410
  S         4.0673814007        9.4339193692        1.1936328496
  S         9.3806827354        6.5795860276        9.4403730563
  S         1.2320124161        6.5490700614        1.2694387751
  S         8.0145496308        2.5961140614        8.0427104115
  S         8.0607111980        8.0120138018        2.6195245124
  S         0.0003393757       -0.0148453836        0.0323704605
  S        -0.0064736156        5.3529618088        5.3724928308
 Cl         5.3304298998       -0.0054233468        5.3927860547
 Cl         5.2950233344        5.3846364422        0.0250685623
 Cl         2.7519926259        2.7082141889        2.6839939583
 Cl         2.6827741785        8.0220140208        7.9634665271
      52
 i =        8, time =       16.000, E =      -471.5100214348
 Li         2.5222424828        2.5165891657        0.2949345695
 Li         2.4558278920        2.7731118296        5.3130124826
 Li         2.5227372792        5.1799035405        2.7630979157
 Li         2.5281584714        0.2450667944        2.6128558463
 Li         0.0876992234        2.7026371001        2.5385878545
 Li         5.0713503056        2.5961611922        2.5660572315
 Li         2.6718373677        7.8360467619        5.4215106224
 Li         2.7764713172        7.9021176363       10.4306172529
 Li         2.7367688082       10.4146792346        8.0492296540
 Li         2.5723956666        5.5361684148        7.9084832474
 Li         0.1481030537        7.8377378334        7.8755672236
 Li         5.1480251894        8.0289161786        7.9309948292
 Li         8.1569545949        2.6943126054        5.7002032045
 Li         8.0426717150        2.6431631440       10.3591289060
 Li         7.8659439771        5.1149804214        7.9139749029
 Li         8.0332184780        0.2641144774        8.0398464558
 Li         5.5726877389        2.6285520111        7.8902560965
 Li        10.4192171350        2.6917861000        8.0074246233
 Li         8.0016585835        8.1580293248        0.1767442203
 Li         8.0011589610        7.8870459854        5.1428189111
 Li         8.0187977975       10.2911172649        2.3816300856
 Li         7.9581609614        5.5809224014        2.5876779714
 Li         5.6408554515        7.9096376934        2.7784257727
 Li        10.4218466072        8.0595806721        2.6864625297
  P         5.2520121844        0.0156141902        0.0202974016
  P         5.3171307513        5.2932013359        5.2451961330
  P        -0.0188480463        0.0086392585        5.2503305094
  P        -0.0127699957        5.2873227351       -0.0007898061
  S         1.2973442292        4.1059152929        9.3493154902
  S         9.3880723858        4.1067065711        1.3223511946
  S         4.1054094980        1.2918332663        9.3839532027
  S         6.4811726494        1.2055971362        1.3212398147
  S         1.2751756584        9.3425893097        4.0270070713
  S         9.3225300464        9.3722229020        6.4680003634
  S         4.0923317643        6.5190460899        4.0444734212
  S         6.5894640357        6.5556181698        6.5395417623
  S         6.5123833390        4.0540633974        4.0042112161
  S         4.0618278389        4.0733869046        6.5489899467
  S         9.3648820740        1.1705254524        4.0405100818
  S         1.1983665315        1.2032521784        6.5195247311
  S         6.4985033803        9.3485664025        9.3779836480
  S         4.0295133540        9.3561374456        1.1790557974
  S         9.2977088690        6.5240502051        9.3640486468
  S         1.2214838667        6.4913446291        1.2612121363
  S         7.9486634817        2.5670284869        7.9816828434
  S         7.9999016980        7.9462911617        2.5920982606
  S         0.0020601780       -0.0158858261        0.0369624912
  S        -0.0046704987        5.3103101563        5.3329385608
 Cl         5.2839111640       -0.0064945344        5.3557764255
 Cl         5.2443653592        5.3463787728        0.0280699428
 Cl         2.7398535668        2.6910543586        2.6645046178
 Cl         2.6635022235        7.9577700245        7.8922215274
      52
 i =        9, time =       18.000, E =      -471.5429115064
 Li         2.4642111332        2.4612833803        0.2766864933
 Li         2.3929104546        2.7572132499        5.2729913277
 Li         2.4665433349        5.1305786844        2.7436246931
 Li         2.4727791987        0.2253572208        2.5660188112
 Li         0.0615451670        2.6629485368        2.4962310314
 Li         5.0174433494        2.5580817678        2.5247589747
 Li         2.6277317225        7.7117434271        5.3193323325
 Li         2.7441532038        7.7832950538       10.3047355859
 Li         2.6992456468       10.2900321638        7.9481790556
 Li         2.5237628044        5.4418917792        7.7856037033
 Li         0.1191046497        7.7146705653        7.7527680566
 Li         5.1003290168        7.9234340889        7.8138791742
 Li         8.0700627494        2.6668815642        5.6298161488
 Li         7.9434538970        2.6004670789       10.2156222177
 Li         7.7531201049        5.0407147319        7.7995722330
 Li         7.9347725873        0.2585034717        7.9404641513
 Li         5.5015673471        2.5884054937        7.7716134620
 Li        10.2753927520        2.6576262105        7.9006123092
 Li         7.9047613414        8.0663703304        0.1732507438
 Li         7.9009249357        7.7671023260        5.0683745530
 Li         7.9241157211       10.1374792321        2.3176989851
 Li         7.8495122424        5.5112540279        2.5478949115
 Li         5.5758590157        7.7981373289        2.7500951871
 Li        10.2762022822        7.9557239681        2.6479218975
  P         5.1764924281        0.0162156150        0.0221055201
  P         5.2469817755        5.2166743041        5.1679025794
  P        -0.0212701924        0.0061550216        5.1714773429
  P        -0.0152485119        5.2135079185       -0.0010271872
  S         1.2860711958        4.0534137035        9.2185347913
  S         9.2589514736        4.0542986523        1.3109796438
  S         4.0517173292        1.2806157684        9.2551394164
  S         6.3825667407        1.1851846183        1.3107551742
  S         1.2625404042        9.2112304482        3.9685897103
  S         9.1892336759        9.2427597748        6.3698229825
  S         4.0375767241        6.4265514113        3.9848142753
  S         6.4995432294        6.4654193694        6.4471431337
  S         6.4175372341        3.9958250088        3.9419042000
  S         4.0054361609        4.0187563595        6.4582898271
  S         9.2335988796        1.1479056288        3.9801446044
  S         1.1780850056        1.1813772415        6.4267419110
  S         6.4010509079        9.2176068343        9.2479814142
  S         3.9687322070        9.2247356079        1.1577231566
  S         9.1617055175        6.4298623431        9.2341605608
  S         1.2034694487        6.3957788520        1.2447734361
  S         7.8366653304        2.5237307419        7.8745836001
  S         7.8924552739        7.8344408227        2.5498867734
  S         0.0040504364       -0.0165390147        0.0415661243
  S        -0.0021876656        5.2367147166        5.2625698235
 Cl         5.2064096992       -0.0076725451        5.2878212338
 Cl         5.1630384796        5.2771507834        0.0308696426
 Cl         2.7115506244        2.6582498902        2.6296790811
 Cl         2.6289668868        7.8473761306        7.7753119555
      52
 i =       10, time =       20.000, E =      -471.5621898329
 Li         2.3978750000        2.3984969065        0.2547414055
 Li         2.3223932057        2.7364912179        5.2173246787
 Li         2.4025585348        5.0670849942        2.7184979055
 Li         2.4099678080        0.2032694980        2.5106873675
 Li         0.0365424566        2.6129720867        2.4496458759
 Li         4.9513386290        2.5150069994        2.4783648689
 Li         2.5741561584        7.5672339256        5.2027427033
 Li         2.7024596323        7.6421628821       10.1517756914
 Li         2.6520813306       10.1393018586        7.8253379922
 Li         2.4679964657        5.3317245387        7.6400354986
 Li         0.0883372833        7.5710541506        7.6080505119
 Li         5.0397481454        7.7961224448        7.6745680445
 Li         7.9623695379        2.6337048985        5.5413760176
 Li         7.8234444324        2.5495529098       10.0457195912
 Li         7.6215426933        4.9502993265        7.6650679620
 Li         7.8161894166        0.2505429240        7.8205843664
 Li         5.4162257018        2.5410044524        7.6319799383
 Li        10.1029278934        2.6158853926        7.7723164890
 Li         7.7893492029        7.9523789600        0.1708819143
 Li         7.7810750797        7.6260358974        4.9768905843
 Li         7.8110450781        9.9572180629        2.2481300656
 Li         7.7200101739        5.4276218453        2.5022761014
 Li         5.4959575288        7.6672957270        2.7130565073
 Li        10.1014233587        7.8294584897        2.6005624942
  P         5.0880541888        0.0165398016        0.0237386435
  P         5.1632127726        5.1259290324        5.0777313853
  P        -0.0233264459        0.0026870471        5.0791531822
  P        -0.0177101327        5.1263143887       -0.0013257844
  S         1.2706791318        3.9903446825        9.0641523121
  S         9.1051439665        3.9915575846        1.2947780623
  S         3.9873744590        1.2658433212        9.1021144317
  S         6.2667062897        1.1611686129        1.2957509704
  S         1.2461939437        9.0561719973        3.9006072257
  S         9.0322701649        9.0892078532        6.2546614372
  S         3.9724098227        6.3168974598        3.9146487598
  S         6.3910652163        6.3573873823        6.3367933755
  S         6.3054120563        3.9272671986        3.8697857082
  S         3.9391768365        3.9541421480        6.3499709080
  S         9.0777495220        1.1225012540        3.9090860938
  S         1.1544485813        1.1557437188        6.3168886009
  S         6.2860454183        9.0631034336        9.0937546155
  S         3.8977627286        9.0693310570        1.1337285554
  S         9.0021354497        6.3178927141        9.0804626141
  S         1.1819523158        6.2833155387        1.2242324923
  S         7.7038636470        2.4745369331        7.7468430496
  S         7.7638272340        7.7017505217        2.5012161093
  S         0.0062670875       -0.0168149792        0.0463137371
  S         0.0009799047        5.1490620269        5.1783724183
 Cl         5.1147731724       -0.0089895470        5.2059693529
 Cl         5.0677805967        5.1939703236        0.0335460450
 Cl         2.6757283701        2.6183560643        2.5880115411
 Cl         2.5876469977        7.7161715896        7.6378988156
