      15
 i =        0, time =        0.000, E =      -512.9750458834
 Ag         0.0020053232        0.0027160165        0.0041556009
 Ag         0.0000230827        0.0016837965       -0.0016383967
 Ag         0.0001844491       -0.0019492545       -0.0014564886
 Ag         0.0170862692       -0.0029133072        0.0127247150
 Ag        -0.0010379394       -0.0038018903        0.0006029206
 Ag        -0.0004741987        0.0093675975       -0.0028282955
 Ag        -0.0006190863       -0.0014762446       -0.0036882412
 Ag        -0.0113652252       -0.0015013958       -0.0001820340
 Ag         0.0007548522        0.0014351067        0.0022176462
 Ag        -0.0007292108       -0.0013749572        0.0006864455
 Ag         0.0017459672       -0.0005107115        0.0003941444
 Ag        -0.0011549449       -0.0006406309       -0.0023452943
 Ag         0.0007203645       -0.0002756238       -0.0019195719
  O        -0.0091816650       -0.0019596434       -0.0085801283
  O         0.0006001442        0.0005647641        0.0002384539
      15
 i =        1, time =        0.500, E =      -512.9751137724
 Ag         0.0018649757        0.0027893035        0.0040979229
 Ag        -0.0001792541        0.0016783979       -0.0014106511
 Ag         0.0001976847       -0.0018595994       -0.0014756845
 Ag         0.0170208464       -0.0029040887        0.0126122231
 Ag        -0.0012107137       -0.0037316866        0.0003972314
 Ag        -0.0005554708        0.0094623432       -0.0028511548
 Ag        -0.0005305983       -0.0014462112       -0.0037837280
 Ag        -0.0113261344       -0.0014227120       -0.0001236179
 Ag         0.0008811138        0.0013586864        0.0023358882
 Ag        -0.0006748238       -0.0015917383        0.0008739628
 Ag         0.0017460866       -0.0003128195        0.0004608919
 Ag        -0.0011294565       -0.0006990970       -0.0024683620
 Ag         0.0006126585       -0.0002914009       -0.0018539529
  O        -0.0090594253       -0.0018090543       -0.0085702382
  O         0.0007114427       -0.0002401588        0.0002303285
      15
 i =        2, time =        1.000, E =      -512.9751741800
 Ag         0.0017330546        0.0028544577        0.0040318746
 Ag        -0.0003809695        0.0016716545       -0.0011803963
 Ag         0.0002042521       -0.0017612041       -0.0014840232
 Ag         0.0169518593       -0.0028939306        0.0124972303
 Ag        -0.0013542443       -0.0036587961        0.0002177358
 Ag        -0.0006390641        0.0095579502       -0.0028716062
 Ag        -0.0004416931       -0.0014142427       -0.0038875321
 Ag        -0.0112835709       -0.0013391146       -0.0000622083
 Ag         0.0010010589        0.0012892086        0.0024584196
 Ag        -0.0006212549       -0.0018141751        0.0010651461
 Ag         0.0017454961       -0.0001415415        0.0005374765
 Ag        -0.0011000452       -0.0007670985       -0.0025971583
 Ag         0.0005291203       -0.0003006941       -0.0018118877
  O        -0.0089249761       -0.0016150127       -0.0085215448
  O         0.0008011279       -0.0010612237        0.0002105208
