     116
 i =        0, time =        0.000, E =      -511.5234201843
  I         1.0574263000        7.8135035100        3.2025012800
 Rb         8.5941140100        8.6100434100        6.3920960200
  N         5.3928101800        5.4028065200        4.0109673300
  H         6.0428745100        6.0541492400        4.4945756100
  N         3.8051715500        3.8121505600        2.8301474300
  C         5.1202246700        3.0130072000        3.0090321600
  H         4.9167054400        2.0707822500        3.6100900100
  H         5.4619603500        2.6201208800        2.1510049700
  C         6.1450852600        4.1065913600        3.5110968000
  H         6.8269847800        4.5570856100        2.8304055600
  H         6.7149238400        3.6060931400        4.2307658100
  C         3.0677328300        2.6511701200        2.1792703100
  H         2.1415984400        3.2611446300        2.0375564300
  I         4.2012388400        0.5578812800        6.2647084100
  C         4.0873014200        5.2780616800        2.1874014300
  H         4.6879714700        5.0273288400        1.4041031500
  H         3.1275639500        5.7520354800        1.9321099500
  C         4.8222735700        6.3275602600        3.0192283300
  H         4.1482366600        7.1326736900        3.4190731200
  H         5.6603452700        6.9061120300        2.5774372500
  H         2.8539908600        1.6187230900        2.6702353200
  I         7.1896551600        4.0606829100        0.0894423600
  C         3.1971201900        4.1364223300        4.0296818200
  H         2.3562733900        4.8850849500        3.8819018700
  H         2.8435834100        3.0823654600        4.4206211000
  C         4.2733426200        4.8348730100        4.8053652400
  H         4.7084776200        4.0229363000        5.4155867400
  H         3.8925037000        5.7855744400        5.2910385700
  H         3.5376667900        2.4028284600        1.3319555600
  I         8.4348763000        7.8135035100        3.2025012800
 Rb        15.9715640100        8.6100434100        6.3920960200
  N        11.4328921700        6.1424266700        2.9925117800
  H        11.2402249400        7.2599192100        2.8342775200
  N        11.9033555300        3.4136716400        3.3790628300
  C        13.1742938500        4.3330845700        3.5050307200
  H        13.4285057800        4.3131316900        4.4410134400
  H        13.9618624600        3.8091425300        2.9850259800
  C        12.9248645600        5.9160430700        3.0391044100
  H        13.3166452400        6.0897919900        2.1422285200
  H        13.3349077100        6.7584694200        3.6226093600
  C        12.2030258300        2.1050401200        3.6024751400
  H        11.2453452900        1.6539695000        3.4412723800
  I        12.3264423900        0.5998967900        6.1124111600
  C        11.3770498200        3.6431485200        2.1399053400
  H        12.2073613900        3.4330337400        1.5296838400
  H        10.5664171700        2.8383164300        2.0117433400
  C        10.8512192900        5.2337657800        2.0132921200
  H         9.7615563100        5.2776521900        2.1080261700
  H        11.1689975100        5.7612214600        1.1791420500
  H        12.5151190800        2.1386940500        4.3689949200
  I        13.9808147300        4.1180748000        1.0183264900
  C        10.8655067300        3.9650263700        4.2512872200
  H         9.9123199400        3.4322437900        4.0334247200
  H        11.1761449300        3.6240529100        5.1357728200
  C        10.8002122500        5.6658819700        4.1534556000
  H        11.3670410700        6.2092999300        4.8476987100
  H        10.1384916800        5.9391858700        4.0631097700
  H        12.9358528400        1.9341190000        2.9448866200
  I         1.6318492300        8.3381989600        9.6557743200
 Rb         9.1685369400        9.1347388500       12.8453690600
  N         4.9350091800        5.7583448300       10.9655306200
  H         4.9346796500        6.3031275700       11.7649620900
  N         4.9358625200        4.4280079100        9.0132864600
  C         6.1204199400        3.9420781200        9.7463782800
  H         5.9343697500        2.7838827600       10.0178029400
  H         6.8294439200        3.9963089800        9.2480565300
  C         6.2485556500        4.9710325400       10.8047150600
  H         7.0183208700        5.8307459400       10.6605489400
  H         6.4408977100        4.3501287500       11.6216994300
  C         4.9361874900        3.6415215000        7.8590540400
  H         4.0948923600        4.0331541900        7.3354354700
  I         4.7767948800        1.1232625100       12.4207436900
  C         5.0286793100        6.0987641100        8.8084595700
  H         6.0340185400        6.3445458600        8.4599828300
  H         4.2739467400        6.4065348800        8.1605509600
  C         4.7559088900        6.8793302500        9.9772763900
  H         3.7281462800        7.2809872200       10.0420672500
  H         5.4637817000        7.7923291500       10.1207971800
  H         4.8369501400        2.4451368300        8.0264519500
  I         7.7640780900        4.5853783600        6.5427154100
  C         3.6577241300        4.0721350400        9.7014635000
  H         2.8387192800        4.6128814700        9.2326977400
  H         3.5158467700        2.8644937600        9.7133375200
  C         3.8009277800        4.6391070300       10.9616586600
  H         4.0587662200        3.7487983400       11.5854320300
  H         2.9003168700        5.2074827100       11.2636718400
  H         5.8768833400        3.8851633400        7.3918370800
  I         9.0092992300        8.3381989600        9.6557743200
 Rb        16.5459869400        9.1347388500       12.8453690600
  N        13.4512257100        5.8754908200       10.3891242700
  H        14.1684305400        6.4940678400       10.8253655300
  N        11.6995490500        4.3648898900        9.3239470300
  C        12.7494324700        3.3476554200        9.8473074700
  H        12.2648046300        2.7149733600       10.5686543300
  H        13.0843621700        2.5996986300        9.1559037900
  C        13.9260295500        4.2968283000       10.2739978800
  H        14.7624177600        4.3205972300        9.6431259100
  H        14.2700925200        3.9300393500       11.1423503000
  C        10.6638842500        3.4718940500        8.6941075800
  H         9.9681548400        4.1327026000        8.3106540900
  I        12.1542448800        1.1232625100       12.4207436900
  C        12.3864496100        5.4576655100        8.4749544200
  H        12.9934518400        4.8052333400        7.8674433000
  H        11.6093974800        6.0543371700        7.9948309100
  C        13.2372955300        6.5494814400        9.1802971700
  H        12.7341610800        7.6116066000        9.3054906600
  H        14.2249860500        6.7369557200        8.7767094700
  H        10.1614506800        2.7190800800        9.3262702000
  I        15.1415280900        4.5853783600        6.5427154100
  C        11.0543076700        5.2305075900       10.3132337800
  H        10.4423753400        6.0935426200        9.9015149600
  H        10.4246122700        4.4576691000       10.8327222600
  C        12.1558614900        5.8880466300       11.0840127200
  H        12.3111462300        5.2234336500       11.8867998800
  H        11.9570144500        7.0442077900       11.3079412900
  H        11.1541027500        2.8321982000        8.0051561500
     116
 i =        1, time =        1.000, E =      -511.8112151465
  I         1.0561290448        7.8123112179        3.1996054912
 Rb         8.6010411310        8.6051361391        6.3931279002
  N         5.4071767119        5.3968494269        4.0129590179
  H         6.0616818779        6.0309683803        4.5366905621
  N         3.8072096157        3.8064451156        2.8352153257
  C         5.1102782377        3.0051994307        3.0046978796
  H         4.8897901807        2.1032431779        3.5887326504
  H         5.4635314483        2.6695324412        2.1169288733
  C         6.1428506994        4.1187534017        3.5052853544
  H         6.8505607840        4.5465975840        2.8567549018
  H         6.7212100915        3.6167959135        4.2095906947
  C         3.0615525116        2.6502980576        2.1866300307
  H         2.1374032885        3.3005025224        2.0357751525
  I         4.2070906249        0.5584466153        6.2649728607
  C         4.0866115533        5.2671197559        2.1952132641
  H         4.6877879857        5.0363833913        1.4012547531
  H         3.1429397563        5.7495380276        1.9258134797
  C         4.8180248656        6.3338998289        3.0223531812
  H         4.1659710157        7.1250343046        3.4760020895
  H         5.6305086182        6.9033322588        2.5639117543
  H         2.8964588387        1.6299530943        2.6588012279
  I         7.1849790187        4.0594666188        0.0894031405
  C         3.1888507242        4.1422091165        4.0255971268
  H         2.3973767763        4.9058666332        3.9163855900
  H         2.8604710236        3.0547762584        4.4361270522
  C         4.2768766719        4.8356442524        4.8065271576
  H         4.6662842523        4.0224926301        5.4341033598
  H         3.8602570277        5.7795515321        5.2837131169
  H         3.5441397399        2.4340807889        1.3396201243
  I         8.4346891979        7.8142162969        3.2040035909
 Rb        15.9805713841        8.6113990186        6.3942438436
  N        11.4384881244        6.1348733308        2.9862196903
  H        11.2915401835        7.2640208770        2.8170858205
  N        11.8976380200        3.4071242091        3.3799738784
  C        13.1635508389        4.3387041547        3.5001814508
  H        13.4242353589        4.3592275688        4.4831168750
  H        13.9660735238        3.8017525187        2.9886114684
  C        12.9158213834        5.9137021562        3.0412023558
  H        13.3302318363        6.0946167363        2.0825235269
  H        13.3248896486        6.7248772262        3.6125903013
  C        12.1989200819        2.0995478640        3.5929559711
  H        11.2554861984        1.6293057465        3.4400308364
  I        12.3257941091        0.5940146388        6.1115606285
  C        11.3760255998        3.6384066095        2.1307146209
  H        12.2237307778        3.4370424026        1.4677375815
  H        10.5841188839        2.8837070385        2.0101434716
  C        10.8418735549        5.2299493816        2.0093751947
  H         9.7811960683        5.2638657499        2.1155232543
  H        11.1880266814        5.7581189410        1.1635990966
  H        12.5814827382        2.1074925237        4.4828912015
  I        13.9856221815        4.1212833589        1.0196413364
  C        10.8680364223        3.9656968954        4.2519168940
  H         9.8759973040        3.4278602549        3.9885101670
  H        11.1608064246        3.5960580438        5.1511803190
  C        10.8262999249        5.6565019444        4.1511753228
  H        11.4179002743        6.1957425997        4.8948199002
  H         9.9679932984        6.0015317051        4.0821152079
  H        12.9602793813        1.9116532279        2.9219621711
  I         1.6301067351        8.3397405725        9.6573194551
 Rb         9.1710109929        9.1303976161       12.8443247078
  N         4.9343169110        5.7580416486       10.9620430775
  H         4.9625091355        6.2843814671       11.8013891306
  N         4.9300106389        4.4337870655        9.0030833571
  C         6.1177169015        3.9340346507        9.7590102622
  H         5.9180542836        2.8154690708       10.0504863832
  H         6.9188338987        4.0172270764        9.2475353232
  C         6.2536912206        4.9729000150       10.8051837341
  H         7.0417255812        5.8286272002       10.5992851900
  H         6.4618454245        4.3752534037       11.6901873726
  C         4.9363174540        3.6327946887        7.8535991752
  H         4.1083370293        3.9844282264        7.3467539193
  I         4.7764001718        1.1253132974       12.4180613279
  C         5.0233502430        6.0930078143        8.8030612785
  H         6.0140588499        6.2921708066        8.4469356495
  H         4.2442450074        6.3658615150        8.1971991243
  C         4.7519472460        6.8794452643        9.9659285384
  H         3.7395087108        7.2709482139       10.0115514333
  H         5.4655772784        7.8367093293       10.1066238747
  H         4.8255169625        2.4804458623        8.0763930592
  I         7.7611862263        4.5852761603        6.5395242145
  C         3.6569492692        4.0574621536        9.6991864332
  H         2.8223902845        4.6405758859        9.2488526478
  H         3.4908559396        2.8671822800        9.6985412578
  C         3.7983345213        4.6430323359       10.9702262319
  H         4.0578697975        3.7959390780       11.5855078223
  H         2.9235158103        5.1834316047       11.2813591364
  H         5.9212699569        3.9112323292        7.3601209141
  I         9.0099142055        8.3384119587        9.6539053407
 Rb        16.5469798354        9.1323563313       12.8406785973
  N        13.4575697617        5.8741487976       10.3893602528
  H        14.1617324449        6.4886888970       10.7787556745
  N        11.6998057905        4.3676022931        9.3160673772
  C        12.7446339631        3.3486885872        9.8564227747
  H        12.2767690795        2.7213435549       10.5681007880
  H        13.1088342842        2.6113975506        9.1097410783
  C        13.9311554542        4.3005881262       10.2654497302
  H        14.7682218277        4.3345210761        9.6342118128
  H        14.2784857828        3.9018660064       11.1652882053
  C        10.6582733872        3.4637456152        8.6900490545
  H         9.9904881972        4.1152336733        8.2936801802
  I        12.1577918024        1.1183847828       12.4188165683
  C        12.3917726862        5.4531963151        8.4721682208
  H        13.0703843314        4.8315988539        7.8620720191
  H        11.5662532112        6.0627771648        8.0289568427
  C        13.2468007337        6.5322254635        9.1887394756
  H        12.6980709559        7.6260945066        9.3004372791
  H        14.2236152508        6.7355820402        8.7914081382
  H        10.1969976492        2.7091631752        9.3595392842
  I        15.1474524232        4.5801613100        6.5404496435
  C        11.0666581188        5.2389588573       10.3182944151
  H        10.3733181003        6.0675971758        9.8982496399
  H        10.4382606329        4.4579771059       10.8608290426
  C        12.1411108509        5.8954043171       11.0672423057
  H        12.3358334379        5.2172399772       11.8583968404
  H        11.9599837748        7.0036735372       11.2985926078
  H        11.1778940051        2.8517644216        8.0042945023
     116
 i =        2, time =        2.000, E =      -511.8896105496
  I         1.0549116744        7.8109837926        3.1968563932
 Rb         8.6080077820        8.6001516987        6.3944438195
  N         5.4219005116        5.3902574683        4.0161987795
  H         6.0793024390        5.9969517392        4.5861010800
  N         3.8110566248        3.7995387567        2.8388306738
  C         5.1008627509        3.0008538855        3.0028729838
  H         4.8657439691        2.1410527971        3.5761236404
  H         5.4728048885        2.7121707961        2.0521211829
  C         6.1393841732        4.1307356616        3.4990842641
  H         6.8804247099        4.5346722232        2.8647608336
  H         6.7352095523        3.6275597389        4.2100826527
  C         3.0517700036        2.6520399735        2.1946481859
  H         2.1324870959        3.3186785435        2.0279649094
  I         4.2129461178        0.5590091411        6.2654446697
  C         4.0843671487        5.2565060944        2.2021906818
  H         4.7008125553        5.0407561799        1.3737835029
  H         3.1544906894        5.7395476669        1.9165320552
  C         4.8135921438        6.3389280044        3.0256829382
  H         4.1853306141        7.1072782742        3.5351019447
  H         5.6012523087        6.8955645040        2.5435637488
  H         2.9408911290        1.6568246955        2.6549009998
  I         7.1804650188        4.0581959949        0.0894730200
  C         3.1796384083        4.1468238893        4.0241462593
  H         2.4337059406        4.9171589427        3.9471771710
  H         2.8804121231        3.0554043450        4.4539844914
  C         4.2801740714        4.8374882738        4.8103485816
  H         4.6273718912        4.0318281690        5.4571492574
  H         3.8313069470        5.7587622172        5.2806120025
  H         3.5651243118        2.4597585072        1.3114408795
  I         8.4345339903        7.8148266259        3.2056423104
 Rb        15.9898606421        8.6126385294        6.3966788652
  N        11.4453080873        6.1277694868        2.9791749994
  H        11.3385662525        7.2387999660        2.8014112681
  N        11.8923744764        3.4055134410        3.3814105568
  C        13.1520605225        4.3456462144        3.4959021220
  H        13.4227244500        4.4053430880        4.5568459921
  H        13.9672377958        3.7996177977        3.0039277627
  C        12.9064331453        5.9098070461        3.0440826148
  H        13.3438071900        6.0995597071        2.0146248363
  H        13.3187715529        6.6892531296        3.6168176062
  C        12.1937807126        2.0934434818        3.5809378833
  H        11.2626984587        1.5904381364        3.4406776605
  I        12.3250300079        0.5880966578        6.1110968219
  C        11.3727416423        3.6350374295        2.1188018007
  H        12.2239608102        3.4391509607        1.4009358798
  H        10.5977098168        2.9353643171        2.0039903221
  C        10.8334127012        5.2246980772        2.0041903220
  H         9.7926101063        5.2506020780        2.1211981795
  H        11.2060512467        5.7499612150        1.1258643160
  H        12.6654229281        2.0687297148        4.6417148753
  I        13.9908592331        4.1243875277        1.0204767244
  C        10.8688837587        3.9678628083        4.2520157719
  H         9.8523227498        3.4358030294        3.9471219524
  H        11.1492673313        3.5661082680        5.2004019589
  C        10.8583747454        5.6436112660        4.1522374690
  H        11.4639932579        6.1752511822        4.9540642411
  H         9.7182272277        6.0864855122        4.1042023579
  H        12.9982835589        1.8752178569        2.8827945707
  I         1.6283699416        8.3411529086        9.6592498614
 Rb         9.1735555274        9.1259864688       12.8437923518
  N         4.9337417795        5.7567025064       10.9598142493
  H         4.9905895957        6.2666210990       11.8583756148
  N         4.9241456333        4.4393514077        8.9938749830
  C         6.1103221939        3.9253937236        9.7749942337
  H         5.9049840855        2.8667054572       10.0827682571
  H         7.0589128155        4.0383395445        9.2057534604
  C         6.2593798581        4.9762934881       10.8067521846
  H         7.0534079487        5.8072544491       10.5427182085
  H         6.4812443634        4.4101035671       11.7642797303
  C         4.9377501883        3.6225343047        7.8469415500
  H         4.1043401143        3.9361681970        7.3402363732
  I         4.7760493059        1.1273809085       12.4158751449
  C         5.0190152408        6.0856327950        8.7965174653
  H         5.9984961301        6.2360958281        8.4259957120
  H         4.2005749385        6.3244762033        8.2062618745
  C         4.7491601715        6.8799156708        9.9565740294
  H         3.7484964687        7.2591807522        9.9844163769
  H         5.4570315224        7.8575962568       10.0940133349
  H         4.8171934728        2.5370944435        8.1235955233
  I         7.7584854536        4.5851711651        6.5365799399
  C         3.6553265652        4.0422856783        9.6950581317
  H         2.8100006310        4.6583384528        9.2558086178
  H         3.4692355356        2.8953904024        9.6836433473
  C         3.7962644189        4.6486713430       10.9821088936
  H         4.0630342971        3.8466890082       11.6009948630
  H         2.9406656734        5.1590497057       11.3057036230
  H         5.9502279797        3.9272264513        7.3283568724
  I         9.0105970204        8.3385026269        9.6524355450
 Rb        16.5480789262        9.1299078015       12.8365559294
  N        13.4639874489        5.8712693112       10.3916320485
  H        14.1626637294        6.4807466932       10.7517162438
  N        11.7004820870        4.3698972076        9.3084283251
  C        12.7411369470        3.3522929579        9.8646628525
  H        12.2851038556        2.7276983558       10.5825923851
  H        13.1301779626        2.6312145853        9.0602030818
  C        13.9349602490        4.3047142222       10.2573167337
  H        14.7822933128        4.3478590479        9.6102497820
  H        14.2925379139        3.8771942265       11.2098213775
  C        10.6541565226        3.4551150954        8.6871913652
  H         9.9892020106        4.1116520165        8.2617860369
  I        12.1614038573        1.1135490456       12.4174314052
  C        12.3965846889        5.4488122426        8.4674145811
  H        13.1428698267        4.8657853492        7.8489634590
  H        11.5285651747        6.0602641539        8.0571531512
  C        13.2544705029        6.5159798371        9.1954008569
  H        12.6736042516        7.6140016719        9.2962410324
  H        14.2251361554        6.7334016580        8.7944320675
  H        10.2350982342        2.7075698757        9.3979407869
  I        15.1534951608        4.5749126153        6.5384789815
  C        11.0767945587        5.2463505171       10.3238173445
  H        10.3117593739        6.0262507780        9.8941788304
  H        10.4571798551        4.4746477189       10.8936897795
  C        12.1272963215        5.9036962723       11.0530569773
  H        12.3602223631        5.2132344187       11.8497099205
  H        11.9628033554        6.9475158673       11.2923264181
  H        11.2060573957        2.8669329577        7.9895725962
     116
 i =        3, time =        3.000, E =      -511.8430467383
  I         1.0537434027        7.8095382826        3.1942060741
 Rb         8.6150533181        8.5950630624        6.3959894393
  N         5.4369285415        5.3832130044        4.0208090713
  H         6.0937682010        5.9522117892        4.6386412566
  N         3.8163678502        3.7917258583        2.8410069943
  C         5.0928794133        3.0004859293        3.0014908989
  H         4.8442190003        2.1731236166        3.5771707327
  H         5.4829062918        2.7523319046        1.9758181394
  C         6.1351527947        4.1421087857        3.4928503231
  H         6.9143326165        4.5216264379        2.8546767132
  H         6.7529145492        3.6400323881        4.2285061548
  C         3.0393633563        2.6568392930        2.2014873150
  H         2.1275514900        3.3140318062        2.0158284213
  I         4.2188486294        0.5595520097        6.2660795348
  C         4.0813653494        5.2460113201        2.2075545325
  H         4.7199060280        5.0428434985        1.3332054441
  H         3.1596454187        5.7229046533        1.9044005954
  C         4.8089269636        6.3421845354        3.0296554432
  H         4.2050153522        7.0809075482        3.5945268406
  H         5.5756128694        6.8856049854        2.5153821269
  H         2.9847036873        1.6916948780        2.6614522932
  I         7.1761106629        4.0568592457        0.0896473457
  C         3.1705087553        4.1497173315        4.0255797194
  H         2.4571962999        4.9240878096        3.9715828266
  H         2.9015390727        3.0846768935        4.4730949490
  C         4.2829959036        4.8402687794        4.8164931504
  H         4.5942367359        4.0491739760        5.4850946104
  H         3.8072340184        5.7262842401        5.2818114313
  H         3.5906683489        2.4829584841        1.2634833696
  I         8.4344064717        7.8153450958        3.2073828571
 Rb        15.9995056574        8.6137437472        6.3993461662
  N        11.4530341927        6.1210105414        2.9715603382
  H        11.3788552679        7.1876241798        2.7874539524
  N        11.8878701544        3.4083140024        3.3830625731
  C        13.1405554155        4.3538196849        3.4944074551
  H        13.4170668068        4.4493049307        4.6333314814
  H        13.9643030852        3.8035695817        3.0318180201
  C        12.8974188526        5.9040115542        3.0455467074
  H        13.3498841375        6.1018759052        1.9587989490
  H        13.3192672738        6.6576237084        3.6383387883
  C        12.1911077419        2.0862370396        3.5703225006
  H        11.2669636838        1.5393748278        3.4434422544
  I        12.3241949112        0.5820455096        6.1109916106
  C        11.3685825937        3.6338475041        2.1040640778
  H        12.2025516752        3.4402305434        1.3379849622
  H        10.5953848310        2.9815213249        1.9918892871
  C        10.8268722612        5.2183611044        1.9969531321
  H         9.7891461135        5.2388038478        2.1254515965
  H        11.2185788654        5.7326553034        1.0762551463
  H        12.7400514685        2.0268324076        4.7804532518
  I        13.9965985692        4.1273703119        1.0208291387
  C        10.8681307729        3.9707586594        4.2526855719
  H         9.8457875565        3.4577228685        3.9120337114
  H        11.1358417595        3.5408946043        5.2631829907
  C        10.8883651507        5.6305623652        4.1571107790
  H        11.4999107363        6.1439595504        5.0139512381
  H         9.4928143658        6.1578500077        4.1326938054
  H        13.0350294602        1.8308950223        2.8408722595
  I         1.6266045691        8.3424587769        9.6614927718
 Rb         9.1761839604        9.1214706468       12.8436600097
  N         4.9333775807        5.7551033451       10.9598162721
  H         5.0172197385        6.2435311401       11.9184373138
  N         4.9183665931        4.4445137975        8.9857304432
  C         6.1031494509        3.9175052015        9.7910889691
  H         5.8938099506        2.9265510092       10.1155525839
  H         7.1910754541        4.0524333215        9.1598882271
  C         6.2656450497        4.9806568377       10.8098467785
  H         7.0523781512        5.7689127387       10.4933605591
  H         6.4971093379        4.4587744528       11.8307243972
  C         4.9411922116        3.6116208309        7.8390314339
  H         4.0801647413        3.8899496115        7.3146823177
  I         4.7757507822        1.1294443889       12.4140824661
  C         5.0148701479        6.0764166768        8.7886377706
  H         5.9907888642        6.1793787546        8.3950801383
  H         4.1476933496        6.2820841900        8.1908182603
  C         4.7480229990        6.8807210250        9.9491948828
  H         3.7504409267        7.2474937759        9.9613232227
  H         5.4376260284        7.8532577351       10.0826587404
  H         4.8130214629        2.6037697281        8.1680492293
  I         7.7559787173        4.5850516647        6.5338080255
  C         3.6525342458        4.0278276252        9.6894615450
  H         2.8048917097        4.6631972988        9.2554095808
  H         3.4511733708        2.9421820454        9.6690753694
  C         3.7952279532        4.6559093588       10.9959305898
  H         4.0770824984        3.8920872219       11.6367188982
  H         2.9439460667        5.1399393279       11.3382086696
  H         5.9572701299        3.9302009488        7.3006659296
  I         9.0113549531        8.3384618497        9.6512723184
 Rb        16.5493188694        9.1273452599       12.8328689968
  N        13.4700761489        5.8664826650       10.3956204639
  H        14.1763786238        6.4748810681       10.7487233876
  N        11.7016553355        4.3717297132        9.3011378235
  C        12.7394067394        3.3581660081        9.8710711143
  H        12.2896321199        2.7324986102       10.6112923131
  H        13.1446675389        2.6629354821        9.0160352660
  C        13.9383553819        4.3085698415       10.2507549406
  H        14.7995508753        4.3598241788        9.5760253844
  H        14.3067626027        3.8632113817       11.2573278209
  C        10.6516526999        3.4461402045        8.6852582266
  H         9.9675594885        4.1176286477        8.2184371256
  I        12.1651377085        1.1086740234       12.4164852047
  C        12.4009613069        5.4445227244        8.4604377746
  H        13.2039820518        4.9080276488        7.8309871364
  H        11.5017057389        6.0454293816        8.0794517471
  C        13.2599914452        6.5010864741        9.1998525118
  H        12.6631490314        7.5745131712        9.2932743840
  H        14.2299783589        6.7306097561        8.7855575484
  H        10.2748282633        2.7147518515        9.4377780946
  I        15.1597321398        4.5695636666        6.5367344089
  C        11.0838995052        5.2522614036       10.3291567881
  H        10.2623308789        5.9704378325        9.8911166612
  H        10.4823847871        4.5063231722       10.9296944256
  C        12.1154858501        5.9115350750       11.0418464192
  H        12.3813284109        5.2151444511       11.8562914281
  H        11.9627521881        6.8919365920       11.2919788617
  H        11.2358330140        2.8782648065        7.9644128762
